<?xml version="1.0" encoding="UTF-8"?>

<!-- generated on 2023-09-12 16:31:10 by Eclipse SUMO netedit Version 1.17.0
<configuration xmlns:xsi="http://www.w3.org/2001/XMLSchema-instance" xsi:noNamespaceSchemaLocation="http://sumo.dlr.de/xsd/netconvertConfiguration.xsd">

    <input>
        <sumo-net-file value="C:\Users\hrdaweed\Desktop\RL-based-Transferable-EMS\RL-based-Transferable-EMS\grid2.net.xml"/>
    </input>

    <output>
        <output-file value="C:\Users\hrdaweed\Desktop\RL-based-Transferable-EMS\RL-based-Transferable-EMS\grid2.net.xml"/>
    </output>

    <processing>
        <geometry.min-radius.fix.railways value="false"/>
        <geometry.max-grade.fix value="false"/>
        <offset.disable-normalization value="true"/>
        <lefthand value="0"/>
    </processing>

    <junctions>
        <no-turnarounds value="true"/>
        <junctions.corner-detail value="5"/>
        <junctions.limit-turn-speed value="5.50"/>
        <rectangular-lane-cut value="0"/>
    </junctions>

    <pedestrian>
        <walkingareas value="0"/>
    </pedestrian>

</configuration>
-->

<net version="1.16" junctionCornerDetail="5" limitTurnSpeed="5.50" xmlns:xsi="http://www.w3.org/2001/XMLSchema-instance" xsi:noNamespaceSchemaLocation="http://sumo.dlr.de/xsd/net_file.xsd">

    <location netOffset="0.00,0.00" convBoundary="0.00,0.00,1200.00,1200.00" origBoundary="0.00,0.00,1200.00,1200.00" projParameter="!"/>

    <edge id=":A1_0" function="internal">
        <lane id=":A1_0_0" index="0" speed="3.65" length="4.67" shape="0.00,301.60 -1.20,300.80 -1.60,300.00 -1.20,299.20 0.00,298.40"/>
    </edge>
    <edge id=":A2_0" function="internal">
        <lane id=":A2_0_0" index="0" speed="3.65" length="4.67" shape="0.00,601.60 -1.20,600.80 -1.60,600.00 -1.20,599.20 0.00,598.40"/>
    </edge>
    <edge id=":A3_0" function="internal">
        <lane id=":A3_0_0" index="0" speed="3.65" length="4.67" shape="0.00,901.60 -1.20,900.80 -1.60,900.00 -1.20,899.20 0.00,898.40"/>
    </edge>
    <edge id=":B0_0" function="internal">
        <lane id=":B0_0_0" index="0" speed="3.65" length="4.67" shape="298.40,0.00 299.20,-1.20 300.00,-1.60 300.80,-1.20 301.60,0.00"/>
    </edge>
    <edge id=":B1_0" function="internal">
        <lane id=":B1_0_0" index="0" speed="6.51" length="9.03" shape="298.40,307.20 298.05,304.75 297.00,303.00 295.25,301.95 292.80,301.60"/>
    </edge>
    <edge id=":B1_1" function="internal">
        <lane id=":B1_1_0" index="0" speed="16.67" length="14.40" shape="298.40,307.20 298.40,292.80"/>
    </edge>
    <edge id=":B1_2" function="internal">
        <lane id=":B1_2_0" index="0" speed="8.00" length="4.07" shape="298.40,307.20 298.95,303.35 299.04,303.20"/>
    </edge>
    <edge id=":B1_3" function="internal">
        <lane id=":B1_3_0" index="0" speed="3.65" length="1.44" shape="298.40,307.20 299.20,306.00"/>
    </edge>
    <edge id=":B1_16" function="internal">
        <lane id=":B1_16_0" index="0" speed="8.00" length="10.13" shape="299.04,303.20 300.60,300.60 303.35,298.95 307.20,298.40"/>
    </edge>
    <edge id=":B1_17" function="internal">
        <lane id=":B1_17_0" index="0" speed="3.65" length="3.23" shape="299.20,306.00 300.00,305.60 300.80,306.00 301.60,307.20"/>
    </edge>
    <edge id=":B1_4" function="internal">
        <lane id=":B1_4_0" index="0" speed="6.51" length="9.03" shape="307.20,301.60 304.75,301.95 303.00,303.00 301.95,304.75 301.60,307.20"/>
    </edge>
    <edge id=":B1_5" function="internal">
        <lane id=":B1_5_0" index="0" speed="16.67" length="14.40" shape="307.20,301.60 292.80,301.60"/>
    </edge>
    <edge id=":B1_6" function="internal">
        <lane id=":B1_6_0" index="0" speed="8.00" length="14.19" shape="307.20,301.60 303.35,301.05 300.60,299.40 298.95,296.65 298.40,292.80"/>
    </edge>
    <edge id=":B1_7" function="internal">
        <lane id=":B1_7_0" index="0" speed="3.65" length="4.67" shape="307.20,301.60 306.00,300.80 305.60,300.00 306.00,299.20 307.20,298.40"/>
    </edge>
    <edge id=":B1_8" function="internal">
        <lane id=":B1_8_0" index="0" speed="6.51" length="9.03" shape="301.60,292.80 301.95,295.25 303.00,297.00 304.75,298.05 307.20,298.40"/>
    </edge>
    <edge id=":B1_9" function="internal">
        <lane id=":B1_9_0" index="0" speed="16.67" length="14.40" shape="301.60,292.80 301.60,307.20"/>
    </edge>
    <edge id=":B1_10" function="internal">
        <lane id=":B1_10_0" index="0" speed="8.00" length="4.07" shape="301.60,292.80 301.05,296.65 300.96,296.80"/>
    </edge>
    <edge id=":B1_11" function="internal">
        <lane id=":B1_11_0" index="0" speed="3.65" length="1.44" shape="301.60,292.80 300.80,294.00"/>
    </edge>
    <edge id=":B1_18" function="internal">
        <lane id=":B1_18_0" index="0" speed="8.00" length="10.13" shape="300.96,296.80 299.40,299.40 296.65,301.05 292.80,301.60"/>
    </edge>
    <edge id=":B1_19" function="internal">
        <lane id=":B1_19_0" index="0" speed="3.65" length="3.23" shape="300.80,294.00 300.00,294.40 299.20,294.00 298.40,292.80"/>
    </edge>
    <edge id=":B1_12" function="internal">
        <lane id=":B1_12_0" index="0" speed="6.51" length="9.03" shape="292.80,298.40 295.25,298.05 297.00,297.00 298.05,295.25 298.40,292.80"/>
    </edge>
    <edge id=":B1_13" function="internal">
        <lane id=":B1_13_0" index="0" speed="16.67" length="14.40" shape="292.80,298.40 307.20,298.40"/>
    </edge>
    <edge id=":B1_14" function="internal">
        <lane id=":B1_14_0" index="0" speed="8.00" length="14.19" shape="292.80,298.40 296.65,298.95 299.40,300.60 301.05,303.35 301.60,307.20"/>
    </edge>
    <edge id=":B1_15" function="internal">
        <lane id=":B1_15_0" index="0" speed="3.65" length="4.67" shape="292.80,298.40 294.00,299.20 294.40,300.00 294.00,300.80 292.80,301.60"/>
    </edge>
    <edge id=":B2_0" function="internal">
        <lane id=":B2_0_0" index="0" speed="6.51" length="9.03" shape="298.40,607.20 298.05,604.75 297.00,603.00 295.25,601.95 292.80,601.60"/>
    </edge>
    <edge id=":B2_1" function="internal">
        <lane id=":B2_1_0" index="0" speed="16.67" length="14.40" shape="298.40,607.20 298.40,592.80"/>
    </edge>
    <edge id=":B2_2" function="internal">
        <lane id=":B2_2_0" index="0" speed="8.00" length="4.07" shape="298.40,607.20 298.95,603.35 299.04,603.20"/>
    </edge>
    <edge id=":B2_3" function="internal">
        <lane id=":B2_3_0" index="0" speed="3.65" length="1.44" shape="298.40,607.20 299.20,606.00"/>
    </edge>
    <edge id=":B2_16" function="internal">
        <lane id=":B2_16_0" index="0" speed="8.00" length="10.13" shape="299.04,603.20 300.60,600.60 303.35,598.95 307.20,598.40"/>
    </edge>
    <edge id=":B2_17" function="internal">
        <lane id=":B2_17_0" index="0" speed="3.65" length="3.23" shape="299.20,606.00 300.00,605.60 300.80,606.00 301.60,607.20"/>
    </edge>
    <edge id=":B2_4" function="internal">
        <lane id=":B2_4_0" index="0" speed="6.51" length="9.03" shape="307.20,601.60 304.75,601.95 303.00,603.00 301.95,604.75 301.60,607.20"/>
    </edge>
    <edge id=":B2_5" function="internal">
        <lane id=":B2_5_0" index="0" speed="16.67" length="14.40" shape="307.20,601.60 292.80,601.60"/>
    </edge>
    <edge id=":B2_6" function="internal">
        <lane id=":B2_6_0" index="0" speed="8.00" length="14.19" shape="307.20,601.60 303.35,601.05 300.60,599.40 298.95,596.65 298.40,592.80"/>
    </edge>
    <edge id=":B2_7" function="internal">
        <lane id=":B2_7_0" index="0" speed="3.65" length="4.67" shape="307.20,601.60 306.00,600.80 305.60,600.00 306.00,599.20 307.20,598.40"/>
    </edge>
    <edge id=":B2_8" function="internal">
        <lane id=":B2_8_0" index="0" speed="6.51" length="9.03" shape="301.60,592.80 301.95,595.25 303.00,597.00 304.75,598.05 307.20,598.40"/>
    </edge>
    <edge id=":B2_9" function="internal">
        <lane id=":B2_9_0" index="0" speed="16.67" length="14.40" shape="301.60,592.80 301.60,607.20"/>
    </edge>
    <edge id=":B2_10" function="internal">
        <lane id=":B2_10_0" index="0" speed="8.00" length="4.07" shape="301.60,592.80 301.05,596.65 300.96,596.80"/>
    </edge>
    <edge id=":B2_11" function="internal">
        <lane id=":B2_11_0" index="0" speed="3.65" length="1.44" shape="301.60,592.80 300.80,594.00"/>
    </edge>
    <edge id=":B2_18" function="internal">
        <lane id=":B2_18_0" index="0" speed="8.00" length="10.13" shape="300.96,596.80 299.40,599.40 296.65,601.05 292.80,601.60"/>
    </edge>
    <edge id=":B2_19" function="internal">
        <lane id=":B2_19_0" index="0" speed="3.65" length="3.23" shape="300.80,594.00 300.00,594.40 299.20,594.00 298.40,592.80"/>
    </edge>
    <edge id=":B2_12" function="internal">
        <lane id=":B2_12_0" index="0" speed="6.51" length="9.03" shape="292.80,598.40 295.25,598.05 297.00,597.00 298.05,595.25 298.40,592.80"/>
    </edge>
    <edge id=":B2_13" function="internal">
        <lane id=":B2_13_0" index="0" speed="16.67" length="14.40" shape="292.80,598.40 307.20,598.40"/>
    </edge>
    <edge id=":B2_14" function="internal">
        <lane id=":B2_14_0" index="0" speed="8.00" length="14.19" shape="292.80,598.40 296.65,598.95 299.40,600.60 301.05,603.35 301.60,607.20"/>
    </edge>
    <edge id=":B2_15" function="internal">
        <lane id=":B2_15_0" index="0" speed="3.65" length="4.67" shape="292.80,598.40 294.00,599.20 294.40,600.00 294.00,600.80 292.80,601.60"/>
    </edge>
    <edge id=":B3_0" function="internal">
        <lane id=":B3_0_0" index="0" speed="6.51" length="9.03" shape="298.40,907.20 298.05,904.75 297.00,903.00 295.25,901.95 292.80,901.60"/>
    </edge>
    <edge id=":B3_1" function="internal">
        <lane id=":B3_1_0" index="0" speed="16.67" length="14.40" shape="298.40,907.20 298.40,892.80"/>
    </edge>
    <edge id=":B3_2" function="internal">
        <lane id=":B3_2_0" index="0" speed="8.00" length="4.07" shape="298.40,907.20 298.95,903.35 299.04,903.20"/>
    </edge>
    <edge id=":B3_3" function="internal">
        <lane id=":B3_3_0" index="0" speed="3.65" length="1.44" shape="298.40,907.20 299.20,906.00"/>
    </edge>
    <edge id=":B3_16" function="internal">
        <lane id=":B3_16_0" index="0" speed="8.00" length="10.13" shape="299.04,903.20 300.60,900.60 303.35,898.95 307.20,898.40"/>
    </edge>
    <edge id=":B3_17" function="internal">
        <lane id=":B3_17_0" index="0" speed="3.65" length="3.23" shape="299.20,906.00 300.00,905.60 300.80,906.00 301.60,907.20"/>
    </edge>
    <edge id=":B3_4" function="internal">
        <lane id=":B3_4_0" index="0" speed="6.51" length="9.03" shape="307.20,901.60 304.75,901.95 303.00,903.00 301.95,904.75 301.60,907.20"/>
    </edge>
    <edge id=":B3_5" function="internal">
        <lane id=":B3_5_0" index="0" speed="16.67" length="14.40" shape="307.20,901.60 292.80,901.60"/>
    </edge>
    <edge id=":B3_6" function="internal">
        <lane id=":B3_6_0" index="0" speed="8.00" length="14.19" shape="307.20,901.60 303.35,901.05 300.60,899.40 298.95,896.65 298.40,892.80"/>
    </edge>
    <edge id=":B3_7" function="internal">
        <lane id=":B3_7_0" index="0" speed="3.65" length="4.67" shape="307.20,901.60 306.00,900.80 305.60,900.00 306.00,899.20 307.20,898.40"/>
    </edge>
    <edge id=":B3_8" function="internal">
        <lane id=":B3_8_0" index="0" speed="6.51" length="9.03" shape="301.60,892.80 301.95,895.25 303.00,897.00 304.75,898.05 307.20,898.40"/>
    </edge>
    <edge id=":B3_9" function="internal">
        <lane id=":B3_9_0" index="0" speed="16.67" length="14.40" shape="301.60,892.80 301.60,907.20"/>
    </edge>
    <edge id=":B3_10" function="internal">
        <lane id=":B3_10_0" index="0" speed="8.00" length="4.07" shape="301.60,892.80 301.05,896.65 300.96,896.80"/>
    </edge>
    <edge id=":B3_11" function="internal">
        <lane id=":B3_11_0" index="0" speed="3.65" length="1.44" shape="301.60,892.80 300.80,894.00"/>
    </edge>
    <edge id=":B3_18" function="internal">
        <lane id=":B3_18_0" index="0" speed="8.00" length="10.13" shape="300.96,896.80 299.40,899.40 296.65,901.05 292.80,901.60"/>
    </edge>
    <edge id=":B3_19" function="internal">
        <lane id=":B3_19_0" index="0" speed="3.65" length="3.23" shape="300.80,894.00 300.00,894.40 299.20,894.00 298.40,892.80"/>
    </edge>
    <edge id=":B3_12" function="internal">
        <lane id=":B3_12_0" index="0" speed="6.51" length="9.03" shape="292.80,898.40 295.25,898.05 297.00,897.00 298.05,895.25 298.40,892.80"/>
    </edge>
    <edge id=":B3_13" function="internal">
        <lane id=":B3_13_0" index="0" speed="16.67" length="14.40" shape="292.80,898.40 307.20,898.40"/>
    </edge>
    <edge id=":B3_14" function="internal">
        <lane id=":B3_14_0" index="0" speed="8.00" length="14.19" shape="292.80,898.40 296.65,898.95 299.40,900.60 301.05,903.35 301.60,907.20"/>
    </edge>
    <edge id=":B3_15" function="internal">
        <lane id=":B3_15_0" index="0" speed="3.65" length="4.67" shape="292.80,898.40 294.00,899.20 294.40,900.00 294.00,900.80 292.80,901.60"/>
    </edge>
    <edge id=":B4_0" function="internal">
        <lane id=":B4_0_0" index="0" speed="3.65" length="4.67" shape="301.60,1200.00 300.80,1201.20 300.00,1201.60 299.20,1201.20 298.40,1200.00"/>
    </edge>
    <edge id=":C0_0" function="internal">
        <lane id=":C0_0_0" index="0" speed="3.65" length="4.67" shape="598.40,0.00 599.20,-1.20 600.00,-1.60 600.80,-1.20 601.60,0.00"/>
    </edge>
    <edge id=":C1_0" function="internal">
        <lane id=":C1_0_0" index="0" speed="6.51" length="9.03" shape="598.40,307.20 598.05,304.75 597.00,303.00 595.25,301.95 592.80,301.60"/>
    </edge>
    <edge id=":C1_1" function="internal">
        <lane id=":C1_1_0" index="0" speed="16.67" length="14.40" shape="598.40,307.20 598.40,292.80"/>
    </edge>
    <edge id=":C1_2" function="internal">
        <lane id=":C1_2_0" index="0" speed="8.00" length="4.07" shape="598.40,307.20 598.95,303.35 599.04,303.20"/>
    </edge>
    <edge id=":C1_3" function="internal">
        <lane id=":C1_3_0" index="0" speed="3.65" length="1.44" shape="598.40,307.20 599.20,306.00"/>
    </edge>
    <edge id=":C1_16" function="internal">
        <lane id=":C1_16_0" index="0" speed="8.00" length="10.13" shape="599.04,303.20 600.60,300.60 603.35,298.95 607.20,298.40"/>
    </edge>
    <edge id=":C1_17" function="internal">
        <lane id=":C1_17_0" index="0" speed="3.65" length="3.23" shape="599.20,306.00 600.00,305.60 600.80,306.00 601.60,307.20"/>
    </edge>
    <edge id=":C1_4" function="internal">
        <lane id=":C1_4_0" index="0" speed="6.51" length="9.03" shape="607.20,301.60 604.75,301.95 603.00,303.00 601.95,304.75 601.60,307.20"/>
    </edge>
    <edge id=":C1_5" function="internal">
        <lane id=":C1_5_0" index="0" speed="16.67" length="14.40" shape="607.20,301.60 592.80,301.60"/>
    </edge>
    <edge id=":C1_6" function="internal">
        <lane id=":C1_6_0" index="0" speed="8.00" length="14.19" shape="607.20,301.60 603.35,301.05 600.60,299.40 598.95,296.65 598.40,292.80"/>
    </edge>
    <edge id=":C1_7" function="internal">
        <lane id=":C1_7_0" index="0" speed="3.65" length="4.67" shape="607.20,301.60 606.00,300.80 605.60,300.00 606.00,299.20 607.20,298.40"/>
    </edge>
    <edge id=":C1_8" function="internal">
        <lane id=":C1_8_0" index="0" speed="6.51" length="9.03" shape="601.60,292.80 601.95,295.25 603.00,297.00 604.75,298.05 607.20,298.40"/>
    </edge>
    <edge id=":C1_9" function="internal">
        <lane id=":C1_9_0" index="0" speed="16.67" length="14.40" shape="601.60,292.80 601.60,307.20"/>
    </edge>
    <edge id=":C1_10" function="internal">
        <lane id=":C1_10_0" index="0" speed="8.00" length="4.07" shape="601.60,292.80 601.05,296.65 600.96,296.80"/>
    </edge>
    <edge id=":C1_11" function="internal">
        <lane id=":C1_11_0" index="0" speed="3.65" length="1.44" shape="601.60,292.80 600.80,294.00"/>
    </edge>
    <edge id=":C1_18" function="internal">
        <lane id=":C1_18_0" index="0" speed="8.00" length="10.13" shape="600.96,296.80 599.40,299.40 596.65,301.05 592.80,301.60"/>
    </edge>
    <edge id=":C1_19" function="internal">
        <lane id=":C1_19_0" index="0" speed="3.65" length="3.23" shape="600.80,294.00 600.00,294.40 599.20,294.00 598.40,292.80"/>
    </edge>
    <edge id=":C1_12" function="internal">
        <lane id=":C1_12_0" index="0" speed="6.51" length="9.03" shape="592.80,298.40 595.25,298.05 597.00,297.00 598.05,295.25 598.40,292.80"/>
    </edge>
    <edge id=":C1_13" function="internal">
        <lane id=":C1_13_0" index="0" speed="16.67" length="14.40" shape="592.80,298.40 607.20,298.40"/>
    </edge>
    <edge id=":C1_14" function="internal">
        <lane id=":C1_14_0" index="0" speed="8.00" length="14.19" shape="592.80,298.40 596.65,298.95 599.40,300.60 601.05,303.35 601.60,307.20"/>
    </edge>
    <edge id=":C1_15" function="internal">
        <lane id=":C1_15_0" index="0" speed="3.65" length="4.67" shape="592.80,298.40 594.00,299.20 594.40,300.00 594.00,300.80 592.80,301.60"/>
    </edge>
    <edge id=":C2_0" function="internal">
        <lane id=":C2_0_0" index="0" speed="6.51" length="9.03" shape="598.40,607.20 598.05,604.75 597.00,603.00 595.25,601.95 592.80,601.60"/>
    </edge>
    <edge id=":C2_1" function="internal">
        <lane id=":C2_1_0" index="0" speed="16.67" length="14.40" shape="598.40,607.20 598.40,592.80"/>
    </edge>
    <edge id=":C2_2" function="internal">
        <lane id=":C2_2_0" index="0" speed="8.00" length="4.07" shape="598.40,607.20 598.95,603.35 599.04,603.20"/>
    </edge>
    <edge id=":C2_3" function="internal">
        <lane id=":C2_3_0" index="0" speed="3.65" length="1.44" shape="598.40,607.20 599.20,606.00"/>
    </edge>
    <edge id=":C2_16" function="internal">
        <lane id=":C2_16_0" index="0" speed="8.00" length="10.13" shape="599.04,603.20 600.60,600.60 603.35,598.95 607.20,598.40"/>
    </edge>
    <edge id=":C2_17" function="internal">
        <lane id=":C2_17_0" index="0" speed="3.65" length="3.23" shape="599.20,606.00 600.00,605.60 600.80,606.00 601.60,607.20"/>
    </edge>
    <edge id=":C2_4" function="internal">
        <lane id=":C2_4_0" index="0" speed="6.51" length="9.03" shape="607.20,601.60 604.75,601.95 603.00,603.00 601.95,604.75 601.60,607.20"/>
    </edge>
    <edge id=":C2_5" function="internal">
        <lane id=":C2_5_0" index="0" speed="16.67" length="14.40" shape="607.20,601.60 592.80,601.60"/>
    </edge>
    <edge id=":C2_6" function="internal">
        <lane id=":C2_6_0" index="0" speed="8.00" length="14.19" shape="607.20,601.60 603.35,601.05 600.60,599.40 598.95,596.65 598.40,592.80"/>
    </edge>
    <edge id=":C2_7" function="internal">
        <lane id=":C2_7_0" index="0" speed="3.65" length="4.67" shape="607.20,601.60 606.00,600.80 605.60,600.00 606.00,599.20 607.20,598.40"/>
    </edge>
    <edge id=":C2_8" function="internal">
        <lane id=":C2_8_0" index="0" speed="6.51" length="9.03" shape="601.60,592.80 601.95,595.25 603.00,597.00 604.75,598.05 607.20,598.40"/>
    </edge>
    <edge id=":C2_9" function="internal">
        <lane id=":C2_9_0" index="0" speed="16.67" length="14.40" shape="601.60,592.80 601.60,607.20"/>
    </edge>
    <edge id=":C2_10" function="internal">
        <lane id=":C2_10_0" index="0" speed="8.00" length="4.07" shape="601.60,592.80 601.05,596.65 600.96,596.80"/>
    </edge>
    <edge id=":C2_11" function="internal">
        <lane id=":C2_11_0" index="0" speed="3.65" length="1.44" shape="601.60,592.80 600.80,594.00"/>
    </edge>
    <edge id=":C2_18" function="internal">
        <lane id=":C2_18_0" index="0" speed="8.00" length="10.13" shape="600.96,596.80 599.40,599.40 596.65,601.05 592.80,601.60"/>
    </edge>
    <edge id=":C2_19" function="internal">
        <lane id=":C2_19_0" index="0" speed="3.65" length="3.23" shape="600.80,594.00 600.00,594.40 599.20,594.00 598.40,592.80"/>
    </edge>
    <edge id=":C2_12" function="internal">
        <lane id=":C2_12_0" index="0" speed="6.51" length="9.03" shape="592.80,598.40 595.25,598.05 597.00,597.00 598.05,595.25 598.40,592.80"/>
    </edge>
    <edge id=":C2_13" function="internal">
        <lane id=":C2_13_0" index="0" speed="16.67" length="14.40" shape="592.80,598.40 607.20,598.40"/>
    </edge>
    <edge id=":C2_14" function="internal">
        <lane id=":C2_14_0" index="0" speed="8.00" length="14.19" shape="592.80,598.40 596.65,598.95 599.40,600.60 601.05,603.35 601.60,607.20"/>
    </edge>
    <edge id=":C2_15" function="internal">
        <lane id=":C2_15_0" index="0" speed="3.65" length="4.67" shape="592.80,598.40 594.00,599.20 594.40,600.00 594.00,600.80 592.80,601.60"/>
    </edge>
    <edge id=":C3_0" function="internal">
        <lane id=":C3_0_0" index="0" speed="6.51" length="9.03" shape="598.40,907.20 598.05,904.75 597.00,903.00 595.25,901.95 592.80,901.60"/>
    </edge>
    <edge id=":C3_1" function="internal">
        <lane id=":C3_1_0" index="0" speed="16.67" length="14.40" shape="598.40,907.20 598.40,892.80"/>
    </edge>
    <edge id=":C3_2" function="internal">
        <lane id=":C3_2_0" index="0" speed="8.00" length="4.07" shape="598.40,907.20 598.95,903.35 599.04,903.20"/>
    </edge>
    <edge id=":C3_3" function="internal">
        <lane id=":C3_3_0" index="0" speed="3.65" length="1.44" shape="598.40,907.20 599.20,906.00"/>
    </edge>
    <edge id=":C3_16" function="internal">
        <lane id=":C3_16_0" index="0" speed="8.00" length="10.13" shape="599.04,903.20 600.60,900.60 603.35,898.95 607.20,898.40"/>
    </edge>
    <edge id=":C3_17" function="internal">
        <lane id=":C3_17_0" index="0" speed="3.65" length="3.23" shape="599.20,906.00 600.00,905.60 600.80,906.00 601.60,907.20"/>
    </edge>
    <edge id=":C3_4" function="internal">
        <lane id=":C3_4_0" index="0" speed="6.51" length="9.03" shape="607.20,901.60 604.75,901.95 603.00,903.00 601.95,904.75 601.60,907.20"/>
    </edge>
    <edge id=":C3_5" function="internal">
        <lane id=":C3_5_0" index="0" speed="16.67" length="14.40" shape="607.20,901.60 592.80,901.60"/>
    </edge>
    <edge id=":C3_6" function="internal">
        <lane id=":C3_6_0" index="0" speed="8.00" length="14.19" shape="607.20,901.60 603.35,901.05 600.60,899.40 598.95,896.65 598.40,892.80"/>
    </edge>
    <edge id=":C3_7" function="internal">
        <lane id=":C3_7_0" index="0" speed="3.65" length="4.67" shape="607.20,901.60 606.00,900.80 605.60,900.00 606.00,899.20 607.20,898.40"/>
    </edge>
    <edge id=":C3_8" function="internal">
        <lane id=":C3_8_0" index="0" speed="6.51" length="9.03" shape="601.60,892.80 601.95,895.25 603.00,897.00 604.75,898.05 607.20,898.40"/>
    </edge>
    <edge id=":C3_9" function="internal">
        <lane id=":C3_9_0" index="0" speed="16.67" length="14.40" shape="601.60,892.80 601.60,907.20"/>
    </edge>
    <edge id=":C3_10" function="internal">
        <lane id=":C3_10_0" index="0" speed="8.00" length="4.07" shape="601.60,892.80 601.05,896.65 600.96,896.80"/>
    </edge>
    <edge id=":C3_11" function="internal">
        <lane id=":C3_11_0" index="0" speed="3.65" length="1.44" shape="601.60,892.80 600.80,894.00"/>
    </edge>
    <edge id=":C3_18" function="internal">
        <lane id=":C3_18_0" index="0" speed="8.00" length="10.13" shape="600.96,896.80 599.40,899.40 596.65,901.05 592.80,901.60"/>
    </edge>
    <edge id=":C3_19" function="internal">
        <lane id=":C3_19_0" index="0" speed="3.65" length="3.23" shape="600.80,894.00 600.00,894.40 599.20,894.00 598.40,892.80"/>
    </edge>
    <edge id=":C3_12" function="internal">
        <lane id=":C3_12_0" index="0" speed="6.51" length="9.03" shape="592.80,898.40 595.25,898.05 597.00,897.00 598.05,895.25 598.40,892.80"/>
    </edge>
    <edge id=":C3_13" function="internal">
        <lane id=":C3_13_0" index="0" speed="16.67" length="14.40" shape="592.80,898.40 607.20,898.40"/>
    </edge>
    <edge id=":C3_14" function="internal">
        <lane id=":C3_14_0" index="0" speed="8.00" length="14.19" shape="592.80,898.40 596.65,898.95 599.40,900.60 601.05,903.35 601.60,907.20"/>
    </edge>
    <edge id=":C3_15" function="internal">
        <lane id=":C3_15_0" index="0" speed="3.65" length="4.67" shape="592.80,898.40 594.00,899.20 594.40,900.00 594.00,900.80 592.80,901.60"/>
    </edge>
    <edge id=":C4_0" function="internal">
        <lane id=":C4_0_0" index="0" speed="3.65" length="4.67" shape="601.60,1200.00 600.80,1201.20 600.00,1201.60 599.20,1201.20 598.40,1200.00"/>
    </edge>
    <edge id=":D0_0" function="internal">
        <lane id=":D0_0_0" index="0" speed="3.65" length="4.67" shape="898.40,0.00 899.20,-1.20 900.00,-1.60 900.80,-1.20 901.60,0.00"/>
    </edge>
    <edge id=":D1_0" function="internal">
        <lane id=":D1_0_0" index="0" speed="6.51" length="9.03" shape="898.40,307.20 898.05,304.75 897.00,303.00 895.25,301.95 892.80,301.60"/>
    </edge>
    <edge id=":D1_1" function="internal">
        <lane id=":D1_1_0" index="0" speed="16.67" length="14.40" shape="898.40,307.20 898.40,292.80"/>
    </edge>
    <edge id=":D1_2" function="internal">
        <lane id=":D1_2_0" index="0" speed="8.00" length="4.07" shape="898.40,307.20 898.95,303.35 899.04,303.20"/>
    </edge>
    <edge id=":D1_3" function="internal">
        <lane id=":D1_3_0" index="0" speed="3.65" length="1.44" shape="898.40,307.20 899.20,306.00"/>
    </edge>
    <edge id=":D1_16" function="internal">
        <lane id=":D1_16_0" index="0" speed="8.00" length="10.13" shape="899.04,303.20 900.60,300.60 903.35,298.95 907.20,298.40"/>
    </edge>
    <edge id=":D1_17" function="internal">
        <lane id=":D1_17_0" index="0" speed="3.65" length="3.23" shape="899.20,306.00 900.00,305.60 900.80,306.00 901.60,307.20"/>
    </edge>
    <edge id=":D1_4" function="internal">
        <lane id=":D1_4_0" index="0" speed="6.51" length="9.03" shape="907.20,301.60 904.75,301.95 903.00,303.00 901.95,304.75 901.60,307.20"/>
    </edge>
    <edge id=":D1_5" function="internal">
        <lane id=":D1_5_0" index="0" speed="16.67" length="14.40" shape="907.20,301.60 892.80,301.60"/>
    </edge>
    <edge id=":D1_6" function="internal">
        <lane id=":D1_6_0" index="0" speed="8.00" length="14.19" shape="907.20,301.60 903.35,301.05 900.60,299.40 898.95,296.65 898.40,292.80"/>
    </edge>
    <edge id=":D1_7" function="internal">
        <lane id=":D1_7_0" index="0" speed="3.65" length="4.67" shape="907.20,301.60 906.00,300.80 905.60,300.00 906.00,299.20 907.20,298.40"/>
    </edge>
    <edge id=":D1_8" function="internal">
        <lane id=":D1_8_0" index="0" speed="6.51" length="9.03" shape="901.60,292.80 901.95,295.25 903.00,297.00 904.75,298.05 907.20,298.40"/>
    </edge>
    <edge id=":D1_9" function="internal">
        <lane id=":D1_9_0" index="0" speed="16.67" length="14.40" shape="901.60,292.80 901.60,307.20"/>
    </edge>
    <edge id=":D1_10" function="internal">
        <lane id=":D1_10_0" index="0" speed="8.00" length="4.07" shape="901.60,292.80 901.05,296.65 900.96,296.80"/>
    </edge>
    <edge id=":D1_11" function="internal">
        <lane id=":D1_11_0" index="0" speed="3.65" length="1.44" shape="901.60,292.80 900.80,294.00"/>
    </edge>
    <edge id=":D1_18" function="internal">
        <lane id=":D1_18_0" index="0" speed="8.00" length="10.13" shape="900.96,296.80 899.40,299.40 896.65,301.05 892.80,301.60"/>
    </edge>
    <edge id=":D1_19" function="internal">
        <lane id=":D1_19_0" index="0" speed="3.65" length="3.23" shape="900.80,294.00 900.00,294.40 899.20,294.00 898.40,292.80"/>
    </edge>
    <edge id=":D1_12" function="internal">
        <lane id=":D1_12_0" index="0" speed="6.51" length="9.03" shape="892.80,298.40 895.25,298.05 897.00,297.00 898.05,295.25 898.40,292.80"/>
    </edge>
    <edge id=":D1_13" function="internal">
        <lane id=":D1_13_0" index="0" speed="16.67" length="14.40" shape="892.80,298.40 907.20,298.40"/>
    </edge>
    <edge id=":D1_14" function="internal">
        <lane id=":D1_14_0" index="0" speed="8.00" length="14.19" shape="892.80,298.40 896.65,298.95 899.40,300.60 901.05,303.35 901.60,307.20"/>
    </edge>
    <edge id=":D1_15" function="internal">
        <lane id=":D1_15_0" index="0" speed="3.65" length="4.67" shape="892.80,298.40 894.00,299.20 894.40,300.00 894.00,300.80 892.80,301.60"/>
    </edge>
    <edge id=":D2_0" function="internal">
        <lane id=":D2_0_0" index="0" speed="6.51" length="9.03" shape="898.40,607.20 898.05,604.75 897.00,603.00 895.25,601.95 892.80,601.60"/>
    </edge>
    <edge id=":D2_1" function="internal">
        <lane id=":D2_1_0" index="0" speed="16.67" length="14.40" shape="898.40,607.20 898.40,592.80"/>
    </edge>
    <edge id=":D2_2" function="internal">
        <lane id=":D2_2_0" index="0" speed="8.00" length="4.07" shape="898.40,607.20 898.95,603.35 899.04,603.20"/>
    </edge>
    <edge id=":D2_3" function="internal">
        <lane id=":D2_3_0" index="0" speed="3.65" length="1.44" shape="898.40,607.20 899.20,606.00"/>
    </edge>
    <edge id=":D2_16" function="internal">
        <lane id=":D2_16_0" index="0" speed="8.00" length="10.13" shape="899.04,603.20 900.60,600.60 903.35,598.95 907.20,598.40"/>
    </edge>
    <edge id=":D2_17" function="internal">
        <lane id=":D2_17_0" index="0" speed="3.65" length="3.23" shape="899.20,606.00 900.00,605.60 900.80,606.00 901.60,607.20"/>
    </edge>
    <edge id=":D2_4" function="internal">
        <lane id=":D2_4_0" index="0" speed="6.51" length="9.03" shape="907.20,601.60 904.75,601.95 903.00,603.00 901.95,604.75 901.60,607.20"/>
    </edge>
    <edge id=":D2_5" function="internal">
        <lane id=":D2_5_0" index="0" speed="16.67" length="14.40" shape="907.20,601.60 892.80,601.60"/>
    </edge>
    <edge id=":D2_6" function="internal">
        <lane id=":D2_6_0" index="0" speed="8.00" length="14.19" shape="907.20,601.60 903.35,601.05 900.60,599.40 898.95,596.65 898.40,592.80"/>
    </edge>