<?xml version="1.0" encoding="UTF-8"?>

<!-- generated on 2023-09-13 20:47:36 by Eclipse SUMO netedit Version 1.17.0
<configuration xmlns:xsi="http://www.w3.org/2001/XMLSchema-instance" xsi:noNamespaceSchemaLocation="http://sumo.dlr.de/xsd/netconvertConfiguration.xsd">

    <input>
        <sumo-net-file value="C:\Users\hrdaweed\Desktop\RL-based-Transferable-EMS\RL-based-Transferable-EMS\grid400.net.xml"/>
    </input>

    <output>
        <output-file value="C:\Users\hrdaweed\Desktop\RL-based-Transferable-EMS\RL-based-Transferable-EMS\grid400.net.xml"/>
    </output>

    <processing>
        <geometry.min-radius.fix.railways value="false"/>
        <geometry.max-grade.fix value="false"/>
        <offset.disable-normalization value="true"/>
        <lefthand value="0"/>
    </processing>

    <junctions>
        <no-turnarounds value="true"/>
        <junctions.corner-detail value="5"/>
        <junctions.limit-turn-speed value="5.50"/>
        <rectangular-lane-cut value="0"/>
    </junctions>

    <pedestrian>
        <walkingareas value="0"/>
    </pedestrian>

</configuration>
-->

<net version="1.16" junctionCornerDetail="5" limitTurnSpeed="5.50" xmlns:xsi="http://www.w3.org/2001/XMLSchema-instance" xsi:noNamespaceSchemaLocation="http://sumo.dlr.de/xsd/net_file.xsd">

    <location netOffset="0.00,0.00" convBoundary="0.00,0.00,1200.00,1200.00" origBoundary="0.00,0.00,1200.00,1200.00" projParameter="!"/>

    <edge id=":A1_0" function="internal">
        <lane id=":A1_0_0" index="0" speed="3.65" length="4.67" shape="0.00,401.60 -1.20,400.80 -1.60,400.00 -1.20,399.20 0.00,398.40"/>
    </edge>
    <edge id=":A2_0" function="internal">
        <lane id=":A2_0_0" index="0" speed="3.65" length="4.67" shape="0.00,801.60 -1.20,800.80 -1.60,800.00 -1.20,799.20 0.00,798.40"/>
    </edge>
    <edge id=":B0_0" function="internal">
        <lane id=":B0_0_0" index="0" speed="3.65" length="4.67" shape="398.40,0.00 399.20,-1.20 400.00,-1.60 400.80,-1.20 401.60,0.00"/>
    </edge>
    <edge id=":B1_0" function="internal">
        <lane id=":B1_0_0" index="0" speed="6.51" length="9.03" shape="398.40,407.20 398.05,404.75 397.00,403.00 395.25,401.95 392.80,401.60"/>
    </edge>
    <edge id=":B1_1" function="internal">
        <lane id=":B1_1_0" index="0" speed="16.67" length="14.40" shape="398.40,407.20 398.40,392.80"/>
    </edge>
    <edge id=":B1_2" function="internal">
        <lane id=":B1_2_0" index="0" speed="8.00" length="4.07" shape="398.40,407.20 398.95,403.35 399.04,403.20"/>
    </edge>
    <edge id=":B1_3" function="internal">
        <lane id=":B1_3_0" index="0" speed="3.65" length="1.44" shape="398.40,407.20 399.20,406.00"/>
    </edge>
    <edge id=":B1_16" function="internal">
        <lane id=":B1_16_0" index="0" speed="8.00" length="10.13" shape="399.04,403.20 400.60,400.60 403.35,398.95 407.20,398.40"/>
    </edge>
    <edge id=":B1_17" function="internal">
        <lane id=":B1_17_0" index="0" speed="3.65" length="3.23" shape="399.20,406.00 400.00,405.60 400.80,406.00 401.60,407.20"/>
    </edge>
    <edge id=":B1_4" function="internal">
        <lane id=":B1_4_0" index="0" speed="6.51" length="9.03" shape="407.20,401.60 404.75,401.95 403.00,403.00 401.95,404.75 401.60,407.20"/>
    </edge>
    <edge id=":B1_5" function="internal">
        <lane id=":B1_5_0" index="0" speed="16.67" length="14.40" shape="407.20,401.60 392.80,401.60"/>
    </edge>
    <edge id=":B1_6" function="internal">
        <lane id=":B1_6_0" index="0" speed="8.00" length="4.07" shape="407.20,401.60 403.35,401.05 403.20,400.96"/>
    </edge>
    <edge id=":B1_7" function="internal">
        <lane id=":B1_7_0" index="0" speed="3.65" length="1.44" shape="407.20,401.60 406.00,400.80"/>
    </edge>
    <edge id=":B1_18" function="internal">
        <lane id=":B1_18_0" index="0" speed="8.00" length="10.13" shape="403.20,400.96 400.60,399.40 398.95,396.65 398.40,392.80"/>
    </edge>
    <edge id=":B1_19" function="internal">
        <lane id=":B1_19_0" index="0" speed="3.65" length="3.23" shape="406.00,400.80 405.60,400.00 406.00,399.20 407.20,398.40"/>
    </edge>
    <edge id=":B1_8" function="internal">
        <lane id=":B1_8_0" index="0" speed="6.51" length="9.03" shape="401.60,392.80 401.95,395.25 403.00,397.00 404.75,398.05 407.20,398.40"/>
    </edge>
    <edge id=":B1_9" function="internal">
        <lane id=":B1_9_0" index="0" speed="16.67" length="14.40" shape="401.60,392.80 401.60,407.20"/>
    </edge>
    <edge id=":B1_10" function="internal">
        <lane id=":B1_10_0" index="0" speed="8.00" length="4.07" shape="401.60,392.80 401.05,396.65 400.96,396.80"/>
    </edge>
    <edge id=":B1_11" function="internal">
        <lane id=":B1_11_0" index="0" speed="3.65" length="1.44" shape="401.60,392.80 400.80,394.00"/>
    </edge>
    <edge id=":B1_20" function="internal">
        <lane id=":B1_20_0" index="0" speed="8.00" length="10.13" shape="400.96,396.80 399.40,399.40 396.65,401.05 392.80,401.60"/>
    </edge>
    <edge id=":B1_21" function="internal">
        <lane id=":B1_21_0" index="0" speed="3.65" length="3.23" shape="400.80,394.00 400.00,394.40 399.20,394.00 398.40,392.80"/>
    </edge>
    <edge id=":B1_12" function="internal">
        <lane id=":B1_12_0" index="0" speed="6.51" length="9.03" shape="392.80,398.40 395.25,398.05 397.00,397.00 398.05,395.25 398.40,392.80"/>
    </edge>
    <edge id=":B1_13" function="internal">
        <lane id=":B1_13_0" index="0" speed="16.67" length="14.40" shape="392.80,398.40 407.20,398.40"/>
    </edge>
    <edge id=":B1_14" function="internal">
        <lane id=":B1_14_0" index="0" speed="8.00" length="4.07" shape="392.80,398.40 396.65,398.95 396.80,399.04"/>
    </edge>
    <edge id=":B1_15" function="internal">
        <lane id=":B1_15_0" index="0" speed="3.65" length="1.44" shape="392.80,398.40 394.00,399.20"/>
    </edge>
    <edge id=":B1_22" function="internal">
        <lane id=":B1_22_0" index="0" speed="8.00" length="10.13" shape="396.80,399.04 399.40,400.60 401.05,403.35 401.60,407.20"/>
    </edge>
    <edge id=":B1_23" function="internal">
        <lane id=":B1_23_0" index="0" speed="3.65" length="3.23" shape="394.00,399.20 394.40,400.00 394.00,400.80 392.80,401.60"/>
    </edge>
    <edge id=":B2_0" function="internal">
        <lane id=":B2_0_0" index="0" speed="6.51" length="9.03" shape="398.40,807.20 398.05,804.75 397.00,803.00 395.25,801.95 392.80,801.60"/>
    </edge>
    <edge id=":B2_1" function="internal">
        <lane id=":B2_1_0" index="0" speed="16.67" length="14.40" shape="398.40,807.20 398.40,792.80"/>
    </edge>
    <edge id=":B2_2" function="internal">
        <lane id=":B2_2_0" index="0" speed="8.00" length="4.07" shape="398.40,807.20 398.95,803.35 399.04,803.20"/>
    </edge>
    <edge id=":B2_3" function="internal">
        <lane id=":B2_3_0" index="0" speed="3.65" length="1.44" shape="398.40,807.20 399.20,806.00"/>
    </edge>
    <edge id=":B2_16" function="internal">
        <lane id=":B2_16_0" index="0" speed="8.00" length="10.13" shape="399.04,803.20 400.60,800.60 403.35,798.95 407.20,798.40"/>
    </edge>
    <edge id=":B2_17" function="internal">
        <lane id=":B2_17_0" index="0" speed="3.65" length="3.23" shape="399.20,806.00 400.00,805.60 400.80,806.00 401.60,807.20"/>
    </edge>
    <edge id=":B2_4" function="internal">
        <lane id=":B2_4_0" index="0" speed="6.51" length="9.03" shape="407.20,801.60 404.75,801.95 403.00,803.00 401.95,804.75 401.60,807.20"/>
    </edge>
    <edge id=":B2_5" function="internal">
        <lane id=":B2_5_0" index="0" speed="16.67" length="14.40" shape="407.20,801.60 392.80,801.60"/>
    </edge>
    <edge id=":B2_6" function="internal">
        <lane id=":B2_6_0" index="0" speed="8.00" length="4.07" shape="407.20,801.60 403.35,801.05 403.20,800.96"/>
    </edge>
    <edge id=":B2_7" function="internal">
        <lane id=":B2_7_0" index="0" speed="3.65" length="1.44" shape="407.20,801.60 406.00,800.80"/>
    </edge>
    <edge id=":B2_18" function="internal">
        <lane id=":B2_18_0" index="0" speed="8.00" length="10.13" shape="403.20,800.96 400.60,799.40 398.95,796.65 398.40,792.80"/>
    </edge>
    <edge id=":B2_19" function="internal">
        <lane id=":B2_19_0" index="0" speed="3.65" length="3.23" shape="406.00,800.80 405.60,800.00 406.00,799.20 407.20,798.40"/>
    </edge>
    <edge id=":B2_8" function="internal">
        <lane id=":B2_8_0" index="0" speed="6.51" length="9.03" shape="401.60,792.80 401.95,795.25 403.00,797.00 404.75,798.05 407.20,798.40"/>
    </edge>
    <edge id=":B2_9" function="internal">
        <lane id=":B2_9_0" index="0" speed="16.67" length="14.40" shape="401.60,792.80 401.60,807.20"/>
    </edge>
    <edge id=":B2_10" function="internal">
        <lane id=":B2_10_0" index="0" speed="8.00" length="4.07" shape="401.60,792.80 401.05,796.65 400.96,796.80"/>
    </edge>
    <edge id=":B2_11" function="internal">
        <lane id=":B2_11_0" index="0" speed="3.65" length="1.44" shape="401.60,792.80 400.80,794.00"/>
    </edge>
    <edge id=":B2_20" function="internal">
        <lane id=":B2_20_0" index="0" speed="8.00" length="10.13" shape="400.96,796.80 399.40,799.40 396.65,801.05 392.80,801.60"/>
    </edge>
    <edge id=":B2_21" function="internal">
        <lane id=":B2_21_0" index="0" speed="3.65" length="3.23" shape="400.80,794.00 400.00,794.40 399.20,794.00 398.40,792.80"/>
    </edge>
    <edge id=":B2_12" function="internal">
        <lane id=":B2_12_0" index="0" speed="6.51" length="9.03" shape="392.80,798.40 395.25,798.05 397.00,797.00 398.05,795.25 398.40,792.80"/>
    </edge>
    <edge id=":B2_13" function="internal">
        <lane id=":B2_13_0" index="0" speed="16.67" length="14.40" shape="392.80,798.40 407.20,798.40"/>
    </edge>
    <edge id=":B2_14" function="internal">
        <lane id=":B2_14_0" index="0" speed="8.00" length="4.07" shape="392.80,798.40 396.65,798.95 396.80,799.04"/>
    </edge>
    <edge id=":B2_15" function="internal">
        <lane id=":B2_15_0" index="0" speed="3.65" length="1.44" shape="392.80,798.40 394.00,799.20"/>
    </edge>
    <edge id=":B2_22" function="internal">
        <lane id=":B2_22_0" index="0" speed="8.00" length="10.13" shape="396.80,799.04 399.40,800.60 401.05,803.35 401.60,807.20"/>
    </edge>
    <edge id=":B2_23" function="internal">
        <lane id=":B2_23_0" index="0" speed="3.65" length="3.23" shape="394.00,799.20 394.40,800.00 394.00,800.80 392.80,801.60"/>
    </edge>
    <edge id=":B3_0" function="internal">
        <lane id=":B3_0_0" index="0" speed="3.65" length="4.67" shape="401.60,1200.00 400.80,1201.20 400.00,1201.60 399.20,1201.20 398.40,1200.00"/>
    </edge>
    <edge id=":C0_0" function="internal">
        <lane id=":C0_0_0" index="0" speed="3.65" length="4.67" shape="798.40,0.00 799.20,-1.20 800.00,-1.60 800.80,-1.20 801.60,0.00"/>
    </edge>
    <edge id=":C1_0" function="internal">
        <lane id=":C1_0_0" index="0" speed="6.51" length="9.03" shape="798.40,407.20 798.05,404.75 797.00,403.00 795.25,401.95 792.80,401.60"/>
    </edge>
    <edge id=":C1_1" function="internal">
        <lane id=":C1_1_0" index="0" speed="16.67" length="14.40" shape="798.40,407.20 798.40,392.80"/>
    </edge>
    <edge id=":C1_2" function="internal">
        <lane id=":C1_2_0" index="0" speed="8.00" length="4.07" shape="798.40,407.20 798.95,403.35 799.04,403.20"/>
    </edge>
    <edge id=":C1_3" function="internal">
        <lane id=":C1_3_0" index="0" speed="3.65" length="1.44" shape="798.40,407.20 799.20,406.00"/>
    </edge>
    <edge id=":C1_16" function="internal">
        <lane id=":C1_16_0" index="0" speed="8.00" length="10.13" shape="799.04,403.20 800.60,400.60 803.35,398.95 807.20,398.40"/>
    </edge>
    <edge id=":C1_17" function="internal">
        <lane id=":C1_17_0" index="0" speed="3.65" length="3.23" shape="799.20,406.00 800.00,405.60 800.80,406.00 801.60,407.20"/>
    </edge>
    <edge id=":C1_4" function="internal">
        <lane id=":C1_4_0" index="0" speed="6.51" length="9.03" shape="807.20,401.60 804.75,401.95 803.00,403.00 801.95,404.75 801.60,407.20"/>
    </edge>
    <edge id=":C1_5" function="internal">
        <lane id=":C1_5_0" index="0" speed="16.67" length="14.40" shape="807.20,401.60 792.80,401.60"/>
    </edge>
    <edge id=":C1_6" function="internal">
        <lane id=":C1_6_0" index="0" speed="8.00" length="4.07" shape="807.20,401.60 803.35,401.05 803.20,400.96"/>
    </edge>
    <edge id=":C1_7" function="internal">
        <lane id=":C1_7_0" index="0" speed="3.65" length="1.44" shape="807.20,401.60 806.00,400.80"/>
    </edge>
    <edge id=":C1_18" function="internal">
        <lane id=":C1_18_0" index="0" speed="8.00" length="10.13" shape="803.20,400.96 800.60,399.40 798.95,396.65 798.40,392.80"/>
    </edge>
    <edge id=":C1_19" function="internal">
        <lane id=":C1_19_0" index="0" speed="3.65" length="3.23" shape="806.00,400.80 805.60,400.00 806.00,399.20 807.20,398.40"/>
    </edge>
    <edge id=":C1_8" function="internal">
        <lane id=":C1_8_0" index="0" speed="6.51" length="9.03" shape="801.60,392.80 801.95,395.25 803.00,397.00 804.75,398.05 807.20,398.40"/>
    </edge>
    <edge id=":C1_9" function="internal">
        <lane id=":C1_9_0" index="0" speed="16.67" length="14.40" shape="801.60,392.80 801.60,407.20"/>
    </edge>
    <edge id=":C1_10" function="internal">
        <lane id=":C1_10_0" index="0" speed="8.00" length="4.07" shape="801.60,392.80 801.05,396.65 800.96,396.80"/>
    </edge>
    <edge id=":C1_11" function="internal">
        <lane id=":C1_11_0" index="0" speed="3.65" length="1.44" shape="801.60,392.80 800.80,394.00"/>
    </edge>
    <edge id=":C1_20" function="internal">
        <lane id=":C1_20_0" index="0" speed="8.00" length="10.13" shape="800.96,396.80 799.40,399.40 796.65,401.05 792.80,401.60"/>
    </edge>
    <edge id=":C1_21" function="internal">
        <lane id=":C1_21_0" index="0" speed="3.65" length="3.23" shape="800.80,394.00 800.00,394.40 799.20,394.00 798.40,392.80"/>
    </edge>
    <edge id=":C1_12" function="internal">
        <lane id=":C1_12_0" index="0" speed="6.51" length="9.03" shape="792.80,398.40 795.25,398.05 797.00,397.00 798.05,395.25 798.40,392.80"/>
    </edge>
    <edge id=":C1_13" function="internal">
        <lane id=":C1_13_0" index="0" speed="16.67" length="14.40" shape="792.80,398.40 807.20,398.40"/>
    </edge>
    <edge id=":C1_14" function="internal">
        <lane id=":C1_14_0" index="0" speed="8.00" length="4.07" shape="792.80,398.40 796.65,398.95 796.80,399.04"/>
    </edge>
    <edge id=":C1_15" function="internal">
        <lane id=":C1_15_0" index="0" speed="3.65" length="1.44" shape="792.80,398.40 794.00,399.20"/>
    </edge>
    <edge id=":C1_22" function="internal">
        <lane id=":C1_22_0" index="0" speed="8.00" length="10.13" shape="796.80,399.04 799.40,400.60 801.05,403.35 801.60,407.20"/>
    </edge>
    <edge id=":C1_23" function="internal">
        <lane id=":C1_23_0" index="0" speed="3.65" length="3.23" shape="794.00,399.20 794.40,400.00 794.00,400.80 792.80,401.60"/>
    </edge>
    <edge id=":C2_0" function="internal">
        <lane id=":C2_0_0" index="0" speed="6.51" length="9.03" shape="798.40,807.20 798.05,804.75 797.00,803.00 795.25,801.95 792.80,801.60"/>
    </edge>
    <edge id=":C2_1" function="internal">
        <lane id=":C2_1_0" index="0" speed="16.67" length="14.40" shape="798.40,807.20 798.40,792.80"/>
    </edge>
    <edge id=":C2_2" function="internal">
        <lane id=":C2_2_0" index="0" speed="8.00" length="4.07" shape="798.40,807.20 798.95,803.35 799.04,803.20"/>
    </edge>
    <edge id=":C2_3" function="internal">
        <lane id=":C2_3_0" index="0" speed="3.65" length="1.44" shape="798.40,807.20 799.20,806.00"/>
    </edge>
    <edge id=":C2_16" function="internal">
        <lane id=":C2_16_0" index="0" speed="8.00" length="10.13" shape="799.04,803.20 800.60,800.60 803.35,798.95 807.20,798.40"/>
    </edge>
    <edge id=":C2_17" function="internal">
        <lane id=":C2_17_0" index="0" speed="3.65" length="3.23" shape="799.20,806.00 800.00,805.60 800.80,806.00 801.60,807.20"/>
    </edge>
    <edge id=":C2_4" function="internal">
        <lane id=":C2_4_0" index="0" speed="6.51" length="9.03" shape="807.20,801.60 804.75,801.95 803.00,803.00 801.95,804.75 801.60,807.20"/>
    </edge>
    <edge id=":C2_5" function="internal">
        <lane id=":C2_5_0" index="0" speed="16.67" length="14.40" shape="807.20,801.60 792.80,801.60"/>
    </edge>
    <edge id=":C2_6" function="internal">
        <lane id=":C2_6_0" index="0" speed="8.00" length="4.07" shape="807.20,801.60 803.35,801.05 803.20,800.96"/>
    </edge>
    <edge id=":C2_7" function="internal">
        <lane id=":C2_7_0" index="0" speed="3.65" length="1.44" shape="807.20,801.60 806.00,800.80"/>
    </edge>
    <edge id=":C2_18" function="internal">
        <lane id=":C2_18_0" index="0" speed="8.00" length="10.13" shape="803.20,800.96 800.60,799.40 798.95,796.65 798.40,792.80"/>
    </edge>
    <edge id=":C2_19" function="internal">
        <lane id=":C2_19_0" index="0" speed="3.65" length="3.23" shape="806.00,800.80 805.60,800.00 806.00,799.20 807.20,798.40"/>
    </edge>
    <edge id=":C2_8" function="internal">
        <lane id=":C2_8_0" index="0" speed="6.51" length="9.03" shape="801.60,792.80 801.95,795.25 803.00,797.00 804.75,798.05 807.20,798.40"/>
    </edge>
    <edge id=":C2_9" function="internal">
        <lane id=":C2_9_0" index="0" speed="16.67" length="14.40" shape="801.60,792.80 801.60,807.20"/>
    </edge>
    <edge id=":C2_10" function="internal">
        <lane id=":C2_10_0" index="0" speed="8.00" length="4.07" shape="801.60,792.80 801.05,796.65 800.96,796.80"/>
    </edge>
    <edge id=":C2_11" function="internal">
        <lane id=":C2_11_0" index="0" speed="3.65" length="1.44" shape="801.60,792.80 800.80,794.00"/>
    </edge>
    <edge id=":C2_20" function="internal">
        <lane id=":C2_20_0" index="0" speed="8.00" length="10.13" shape="800.96,796.80 799.40,799.40 796.65,801.05 792.80,801.60"/>
    </edge>
    <edge id=":C2_21" function="internal">
        <lane id=":C2_21_0" index="0" speed="3.65" length="3.23" shape="800.80,794.00 800.00,794.40 799.20,794.00 798.40,792.80"/>
    </edge>
    <edge id=":C2_12" function="internal">
        <lane id=":C2_12_0" index="0" speed="6.51" length="9.03" shape="792.80,798.40 795.25,798.05 797.00,797.00 798.05,795.25 798.40,792.80"/>
    </edge>
    <edge id=":C2_13" function="internal">
        <lane id=":C2_13_0" index="0" speed="16.67" length="14.40" shape="792.80,798.40 807.20,798.40"/>
    </edge>
    <edge id=":C2_14" function="internal">
        <lane id=":C2_14_0" index="0" speed="8.00" length="4.07" shape="792.80,798.40 796.65,798.95 796.80,799.04"/>
    </edge>
    <edge id=":C2_15" function="internal">
        <lane id=":C2_15_0" index="0" speed="3.65" length="1.44" shape="792.80,798.40 794.00,799.20"/>
    </edge>
    <edge id=":C2_22" function="internal">
        <lane id=":C2_22_0" index="0" speed="8.00" length="10.13" shape="796.80,799.04 799.40,800.60 801.05,803.35 801.60,807.20"/>
    </edge>
    <edge id=":C2_23" function="internal">
        <lane id=":C2_23_0" index="0" speed="3.65" length="3.23" shape="794.00,799.20 794.40,800.00 794.00,800.80 792.80,801.60"/>
    </edge>
    <edge id=":C3_0" function="internal">
        <lane id=":C3_0_0" index="0" speed="3.65" length="4.67" shape="801.60,1200.00 800.80,1201.20 800.00,1201.60 799.20,1201.20 798.40,1200.00"/>
    </edge>
    <edge id=":D1_0" function="internal">
        <lane id=":D1_0_0" index="0" speed="3.65" length="4.67" shape="1200.00,398.40 1201.20,399.20 1201.60,400.00 1201.20,400.80 1200.00,401.60"/>
    </edge>
    <edge id=":D2_0" function="internal">
        <lane id=":D2_0_0" index="0" speed="3.65" length="4.67" shape="1200.00,798.40 1201.20,799.20 1201.60,800.00 1201.20,800.80 1200.00,801.60"/>
    </edge>

    <edge id="A1B1" from="A1" to="B1" priority="-1">
        <lane id="A1B1_0" index="0" speed="16.67" length="392.80" shape="0.00,398.40 392.80,398.40"/>
    </edge>
    <edge id="A2B2" from="A2" to="B2" priority="-1">
        <lane id="A2B2_0" index="0" speed="16.67" length="392.80" shape="0.00,798.40 392.80,798.40"/>
    </edge>
    <edge id="B0B1" from="B0" to="B1" priority="-1">
        <lane id="B0B1_0" index="0" speed="16.67" length="392.80" shape="401.60,0.00 401.60,392.80"/>
    </edge>
    <edge id="B1A1" from="B1" to="A1" priority="-1">
        <lane id="B1A1_0" index="0" speed="16.67" length="392.80" shape="392.80,401.60 0.00,401.60"/>
    </edge>
    <edge id="B1B0" from="B1" to="B0" priority="-1">
        <lane id="B1B0_0" index="0" speed="16.67" length="392.80" shape="398.40,392.80 398.40,0.00"/>
    </edge>
    <edge id="B1B2" from="B1" to="B2" priority="-1">
        <lane id="B1B2_0" index="0" speed="16.67" length="385.60" shape="401.60,407.20 401.60,792.80"/>
    </edge>
    <edge id="B1C1" from="B1" to="C1" priority="-1">
        <lane id="B1C1_0" index="0" speed="16.67" length="385.60" shape="407.20,398.40 792.80,398.40"/>
    </edge>
    <edge id="B2A2" from="B2" to="A2" priority="-1">
        <lane id="B2A2_0" index="0" speed="16.67" length="392.80" shape="392.80,801.60 0.00,801.60"/>
    </edge>
    <edge id="B2B1" from="B2" to="B1" priority="-1">
        <lane id="B2B1_0" index="0" speed="16.67" length="385.60" shape="398.40,792.80 398.40,407.20"/>
    </edge>
    <edge id="B2B3" from="B2" to="B3" priority="-1">
        <lane id="B2B3_0" index="0" speed="16.67" length="392.80" shape="401.60,807.20 401.60,1200.00"/>
    </edge>
    <edge id="B2C2" from="B2" to="C2" priority="-1">
        <lane id="B2C2_0" index="0" speed="16.67" length="385.60" shape="407.20,798.40 792.80,798.40"/>
    </edge>
    <edge id="B3B2" from="B3" to="B2" priority="-1">
        <lane id="B3B2_0" index="0" speed="16.67" length="392.80" shape="398.40,1200.00 398.40,807.20"/>
    </edge>
    <edge id="C0C1" from="C0" to="C1" priority="-1">
        <lane id="C0C1_0" index="0" speed="16.67" length="392.80" shape="801.60,0.00 801.60,392.80"/>
    </edge>
    <edge id="C1B1" from="C1" to="B1" priority="-1">
        <lane id="C1B1_0" index="0" speed="16.67" length="385.60" shape="792.80,401.60 407.20,401.60"/>
    </edge>
    <edge id="C1C0" from="C1" to="C0" priority="-1">
        <lane id="C1C0_0" index="0" speed="16.67" length="392.80" shape="798.40,392.80 798.40,0.00"/>
    </edge>
    <edge id="C1C2" from="C1" to="C2" priority="-1">
        <lane id="C1C2_0" index="0" speed="16.67" length="385.60" shape="801.60,407.20 801.60,792.80"/>
    </edge>
    <edge id="C1D1" from="C1" to="D1" priority="-1">
        <lane id="C1D1_0" index="0" speed="16.67" length="392.80" shape="807.20,398.40 1200.00,398.40"/>
    </edge>
    <edge id="C2B2" from="C2" to="B2" priority="-1">
        <lane id="C2B2_0" index="0" speed="16.67" length="385.60" shape="792.80,801.60 407.20,801.60"/>
    </edge>
    <edge id="C2C1" from="C2" to="C1" priority="-1">
        <lane id="C2C1_0" index="0" speed="16.67" length="385.60" shape="798.40,792.80 798.40,407.20"/>
    </edge>
    <edge id="C2C3" from="C2" to="C3" priority="-1">
        <lane id="C2C3_0" index="0" speed="16.67" length="392.80" shape="801.60,807.20 801.60,1200.00"/>
    </edge>
    <edge id="C2D2" from="C2" to="D2" priority="-1">
        <lane id="C2D2_0" index="0" speed="16.67" length="392.80" shape="807.20,798.40 1200.00,798.40"/>
    </edge>
    <edge id="C3C2" from="C3" to="C2" priority="-1">
        <lane id="C3C2_0" index="0" speed="16.67" length="392.80" shape="798.40,1200.00 798.40,807.20"/>
    </edge>
    <edge id="D1C1" from="D1" to="C1" priority="-1">
        <lane id="D1C1_0" index="0" speed="16.67" length="392.80" shape="1200.00,401.60 807.20,401.60"/>
    </edge>
    <edge id="D2C2" from="D2" to="C2" priority="-1">
        <lane id="D2C2_0" index="0" speed="16.67" length="392.80" shape="1200.00,801.60 807.20,801.60"/>
    </edge>

    <tlLogic id="B1" type="static" programID="0" offset="0">
        <phase duration="41" state="GGggrrrrGGggrrrr"/>
        <phase duration="4"  state="yyyyrrrryyyyrrrr"/>
        <phase duration="41" state="rrrrGGggrrrrGGgg"/>
        <phase duration="4"  state="rrrryyyyrrrryyyy"/>
    </tlLogic>
    <tlLogic id="B2" type="static" programID="0" offset="0">
        <phase duration="41" state="GGggrrrrGGggrrrr"/>
        <phase duration="4"  state="yyyyrrrryyyyrrrr"/>
        <phase duration="41" state="rrrrGGggrrrrGGgg"/>
        <phase duration="4"  state="rrrryyyyrrrryyyy"/>
    </tlLogic>
    <tlLogic id="C1" type="static" programID="0" offset="0">
        <phase duration="41" state="GGggrrrrGGggrrrr"/>
        <phase duration="4"  state="yyyyrrrryyyyrrrr"/>
        <phase duration="41" state="rrrrGGggrrrrGGgg"/>
        <phase duration="4"  state="rrrryyyyrrrryyyy"/>
    </tlLogic>
    <tlLogic id="C2" type="static" programID="0" offset="0">
        <phase duration="41" state="GGggrrrrGGggrrrr"/>
        <phase duration="4"  state="yyyyrrrryyyyrrrr"/>
        <phase duration="41" state="rrrrGGggrrrrGGgg"/>
        <phase duration="4"  state="rrrryyyyrrrryyyy"/>
    </tlLogic>

    <junction id="A1" type="priority" x="0.00" y="400.00" incLanes="B1A1_0" intLanes=":A1_0_0" shape="0.00,400.00 0.00,403.20 0.00,400.00">
        <request index="0" response="0" foes="0" cont="0"/>
    </junction>
    <junction id="A2" type="priority" x="0.00" y="800.00" incLanes="B2A2_0" intLanes=":A2_0_0" shape="0.00,800.00 0.00,803.20 0.00,800.00">
        <request index="0" response="0" foes="0" cont="0"/>
    </junction>
    <junction id="B0" type="priority" x="400.00" y="0.00" incLanes="B1B0_0" intLanes=":B0_0_0" shape="400.00,0.00 396.80,0.00 400.00,0.00">
        <request index="0" response="0" foes="0" cont="0"/>
    </junction>
    <junction id="B1" type="traffic_light" x="400.00" y="400.00" incLanes="B2B1_0 C1B1_0 B0B1_0 A1B1_0" intLanes=":B1_0_0 :B1_1_0 :B1_16_0 :B1_17_0 :B1_4_0 :B1_5_0 :B1_18_0 :B1_19_0 :B1_8_0 :B1_9_0 :B1_20_0 :B1_21_0 :B1_12_0 :B1_13_0 :B1_22_0 :B1_23_0" shape="396.80,407.20 403.20,407.20 403.64,404.98 404.20,404.20 404.98,403.64 405.98,403.31 407.20,403.20 407.20,396.80 404.98,396.36 404.20,395.80 403.64,395.02 403.31,394.02 403.20,392.80 396.80,392.80 396.36,395.02 395.80,395.80 395.02,396.36 394.02,396.69 392.80,396.80 392.80,403.20 395.02,403.64 395.80,404.20 396.36,404.98 396.69,405.98">
        <request index="0"  response="0000000000000000" foes="1000010000100000" cont="0"/>
        <request index="1"  response="0100000001000000" foes="0111110001100000" cont="0"/>
        <request index="2"  response="0100001101000000" foes="0110011111100000" cont="1"/>
        <request index="3"  response="0100001000010000" foes="0100001000010000" cont="1"/>
        <request index="4"  response="0000001000000000" foes="0100001000001000" cont="0"/>
        <request index="5"  response="0000011000000111" foes="1100011000000111" cont="0"/>
        <request index="6"  response="0011011000000110" foes="0111111000000110" cont="1"/>
        <request index="7"  response="0010000100000100" foes="0010000100000100" cont="1"/>
        <request index="8"  response="0000000000000000" foes="0010000010000100" cont="0"/>
        <request index="9"  response="0100000001000000" foes="0110000001111100" cont="0"/>
        <request index="10" response="0100000001000111" foes="1110000001100111" cont="1"/>
        <request index="11" response="0001000001000010" foes="0001000001000010" cont="1"/>
        <request index="12" response="0000000000000010" foes="0000100001000010" cont="0"/>
        <request index="13" response="0000011100000110" foes="0000011111000110" cont="0"/>
        <request index="14" response="0000011001110110" foes="0000011001111110" cont="1"/>
        <request index="15" response="0000010000100001" foes="0000010000100001" cont="1"/>
    </junction>
    <junction id="B2" type="traffic_light" x="400.00" y="800.00" incLanes="B3B2_0 C2B2_0 B1B2_0 A2B2_0" intLanes=":B2_0_0 :B2_1_0 :B2_16_0 :B2_17_0 :B2_4_0 :B2_5_0 :B2_18_0 :B2_19_0 :B2_8_0 :B2_9_0 :B2_20_0 :B2_21_0 :B2_12_0 :B2_13_0 :B2_22_0 :B2_23_0" shape="396.80,807.20 403.20,807.20 403.64,804.98 404.20,804.20 404.98,803.64 405.98,803.31 407.20,803.20 407.20,796.80 404.98,796.36 404.20,795.80 403.64,795.02 403.31,794.02 403.20,792.80 396.80,792.80 396.36,795.02 395.80,795.80 395.02,796.36 394.02,796.69 392.80,796.80 392.80,803.20 395.02,803.64 395.80,804.20 396.36,804.98 396.69,805.98">
        <request index="0"  response="0000000000000000" foes="1000010000100000" cont="0"/>
        <request index="1"  response="0100000001000000" foes="0111110001100000" cont="0"/>
        <request index="2"  response="0100001101000000" foes="0110011111100000" cont="1"/>
        <request index="3"  response="0100001000010000" foes="0100001000010000" cont="1"/>
        <request index="4"  response="0000001000000000" foes="0100001000001000" cont="0"/>
        <request index="5"  response="0000011000000111" foes="1100011000000111" cont="0"/>
        <request index="6"  response="0011011000000110" foes="0111111000000110" cont="1"/>
        <request index="7"  response="0010000100000100" foes="0010000100000100" cont="1"/>
        <request index="8"  response="0000000000000000" foes="0010000010000100" cont="0"/>
        <request index="9"  response="0100000001000000" foes="0110000001111100" cont="0"/>
        <request index="10" response="0100000001000111" foes="1110000001100111" cont="1"/>
        <request index="11" response="0001000001000010" foes="0001000001000010" cont="1"/>
        <request index="12" response="0000000000000010" foes="0000100001000010" cont="0"/>
        <request index="13" response="0000011100000110" foes="0000011111000110" cont="0"/>
        <request index="14" response="0000011001110110" foes="0000011001111110" cont="1"/>
        <request index="15" response="0000010000100001" foes="0000010000100001" cont="1"/>
    </junction>