<configuration>
    <input>
        <net-file value="grid400.net.xml"/>
        <route-files value="route.rou.xml"/>
    </input>
    <time>
        <begin value="0"/>
        <end value="2101"/>
    </time>
</configuration>
