<?xml version="1.0" encoding="UTF-8"?>
<routes xmlns:xsi="http://www.w3.org/2001/XMLSchema-instance" xsi:noNamespaceSchemaLocation="http://sumo.dlr.de/xsd/routes_file.xsd">
    <vType id="car" maxSpeed="25" length="5.0"/>
    <vType id="truck" maxSpeed="20" length="7.5"/>
    <vType id="bus" maxSpeed="18" length="12.0"/>
    <route id="route1" edges="A2B2 B2C2 C2C1 C1C0"/>
    <route id="route2" edges="A2A1 A1A0 A0B0 B0C0"/>
<flow id="A2B3" color="1,1,0"  begin="0" end= "3600" number="1200" type="car" from="A2B2" to="B2B3">
</flow>
<flow id="A2C3" color="1,1,0"  begin="0" end= "3600" number="1200" type="car" from="A2B2" to="C2C3">
</flow>
<flow id="A2D2" color="1,1,0"  begin="0" end= "3600" number="1200" type="car" from="A2B2" to="C2D2">
</flow>
<flow id="A2D1" color="1,1,0"  begin="0" end= "3600" number="1200" type="car" from="A2B2" to="C1D1">
</flow>
<flow id="A2C0" color="1,1,0"  begin="0" end= "3600" number="1200" type="car" from="A2B2" to="C1C0">
</flow>
<flow id="A2B0" color="1,1,0"  begin="0" end= "3600" number="1200" type="car" from="A2B2" to="B1B0">
</flow>
<flow id="A2A1" color="1,1,0"  begin="0" end= "3600" number="1200" type="car" from="A2B2" to="B1A1">
</flow>


<flow id="A1A2" color="1,1,0"  begin="0" end= "3600" number="1200" type="car" from="A1B1" to="B2A2">
</flow>
<flow id="A1B3" color="1,1,0"  begin="0" end= "3600" number="1200" type="car" from="A1B1" to="B2B3">
</flow>
<flow id="A1C3" color="1,1,0"  begin="0" end= "3600" number="1200" type="car" from="A1B1" to="C2C3">
</flow>
<flow id="A1D2" color="1,1,0"  begin="0" end= "3600" number="1200" type="car" from="A1B1" to="C2D2">
</flow>
<flow id="A1D1" color="1,1,0"  begin="0" end= "3600" number="1200" type="car" from="A1B1" to="C1D1">
</flow>
<flow id="A1C0" color="1,1,0"  begin="0" end= "3600" number="1200" type="car" from="A1B1" to="C1C0">
</flow>
<flow id="A1B0" color="1,1,0"  begin="0" end= "3600" number="1200" type="car" from="A1B1" to="B1B0">
</flow>

</routes>
